!RI-NEVPT2 DKH DKH-def2-SVP def2-SVP/C Grid4 NoFrozenCore Nofinalgrid LARGEPRINT
!Moread
!NoIter
%MoInp "/home/chandu/projects/new/cusu/ICF_revision/casscf/ROKS-cusu.gbw"

%basis  newgto Cu "DKH-def2-TZVP" end
        newauxgto Cu "def2-TZVP/C" end
        newgto N "DKH-def2-TZVP(-f)" end
        newauxgto N "def2-TZVP/C" end
        newgto C "DKH-def2-SVP" end
        newauxgto C "def2-SVP/C" end
        newgto H "DKH-def2-SVP" end
        newauxgto H "def2-SVP/C" end
        newgto O "DKH-def2-TZVP(-f)" end
        newauxgto O "def2-TZVP/C" end
        end

%method
SpecialGridAtoms 29,7,8;
SpecialGridIntAcc 6,6,6;
end

%casscf TrafoStep RIMO
        MaxIter 450
         MaxDIIS 15
         nel 12
         norb 7
         mult 3,1
        nroots 10,15
          nevpt2 sc
          rel
        dosoc true
         gtensor true
          printlevel 3
         end
        end

#%scf rotate {82,132,90}
#            {130,133,90} end
#             end

%SCF
  MAXITER 1000
   MAXCORE 8000
  MaxIntMem 8000
end

* xyz 1 3
Cu       0.019014000     -0.012897000     -0.706634000
C        2.950340000     -0.855255000     -1.320470000
H        2.567989000     -0.935319000     -2.333947000
C        4.261549000     -1.205035000     -1.008089000
H        4.927473000     -1.566033000     -1.784462000
C        4.682979000     -1.086595000      0.315862000
H        5.694937000     -1.358073000      0.600903000
C        3.783493000     -0.617599000      1.274052000
H        4.080493000     -0.515148000      2.313435000
C        2.490707000     -0.273013000      0.879971000
C        1.493495000      0.331366000      1.856857000
H        1.755713000      0.051840000      2.888548000
H        1.577313000      1.423335000      1.794455000
C       -0.263696000     -1.392763000      1.909812000
H       -0.547962000     -1.462463000      2.970740000
H        0.628934000     -2.016771000      1.779360000
C       -1.371109000     -1.957341000      1.032785000
C       -2.293481000     -2.879495000      1.526556000
H       -2.265062000     -3.170322000      2.572373000
C       -3.243592000     -3.420434000      0.659293000
H       -3.968951000     -4.142229000      1.022503000
C       -3.251000000     -3.013851000     -0.674096000
H       -3.974793000     -3.404193000     -1.381428000
C       -2.306719000     -2.077259000     -1.088148000
C       -0.875135000      0.992360000      1.958447000
H       -0.704340000      1.312215000      2.997456000
H       -1.864988000      0.521096000      1.931517000
C       -0.904079000      2.201058000      1.034842000
C       -1.218179000      3.473944000      1.510961000
H       -1.387163000      3.631313000      2.572008000
C       -1.316749000      4.532024000      0.606597000
H       -1.562538000      5.530338000      0.955845000
C       -1.091084000      4.287711000     -0.747403000
H       -1.156842000      5.080364000     -1.484926000
C       -0.767466000      2.991950000     -1.142293000
N        2.085346000     -0.400112000     -0.399569000
N        0.102799000     -0.019636000      1.525938000
N       -1.385574000     -1.563633000     -0.257140000
N       -0.675138000      1.971762000     -0.273899000
O        0.125267000      0.010927000     -2.734168000
O       -0.994292000      0.020109000     -3.304332000
H       -2.277537000     -1.713949000     -2.111179000
H       -0.575577000      2.750429000     -2.183334000
*










